LAMMPS (3 Mar 2020)
####################################
# Example LAMMPS input script      #
# for a simple Lennard Jones fluid #
####################################

units		real
atom_style	atomic
dimension	3
boundary	p p p

lattice 	custom 13 a1 1.0 0.0 0.0 a2 0.0 1.0 0.0 a3 0.0 0.0 1.0 		basis 0.0 0.0 0.0 basis 0.5 0.5 0.5 		basis 0.25 0.25 0.0 basis 0.75 0.75 0.0 basis 0.75 0.25 0.5 basis 0.25 0.75 0.5
Lattice spacing in x,y,z = 13 13 13
region 	space block 0 5 0 5 0 5
create_box 	2 space
Created orthogonal box = (0 0 0) to (65 65 65)
create_atoms 	1 box basis 3 2 basis 4 2 basis 5 2 basis 6 2
Created 750 atoms

####################################
# 2) Define interparticle interactions
#   - Here, we use truncated & shifted LJ
#   - All atoms of type 1 (in this case, all atoms)
#     have a mass of 1.0
####################################

pair_style	lj/cut 15
pair_modify	shift yes
pair_coeff	1 1 0.5 4.25
pair_coeff	1 2 1.45 5.75 #0.8 7.5
pair_coeff	2 2 1.0 7.5 #0.6 10.0
mass		1 102.181
mass		2 340.419

####################################
# 3) Neighbour lists
#   - Each atom will only consider neighbours
#     within a distance of 2.8 of each other
#   - The neighbour lists are recalculated
#     every timestep
####################################

neighbor        0.3 bin
neigh_modify    delay 10 every 1

####################################
# 4) Define simulation parameters
#   - We fix the temperature and
#     linear and angular momenta
#     of the system
#   - We run with fixed number (n),
#     volume (v), temperature (t)
####################################

#fix		LinMom all momentum 50 linear 1 1 1 angular
#fix		1 all nvt temp 1.00 1.00 5.0
fix 		1 all npt temp 373.0.0 373.0 25.0 iso 1.0 1.0  10.0

####################################
# 5) Final setup
#   - Define starting particle velocity
#   - Define timestep
#   - Define output system properties (temp, energy, etc.)
#   - Define simulation length
####################################

velocity	all create 373.0 199085 mom no

timestep	0.5

thermo_style	custom step temp press vol density

run_style	verlet

thermo		1000
run		300000
  update every 1 steps, delay 10 steps, check yes
Step Temp Press Volume Density
0          373    35859.512       274625    1.1836445
Averages over the last 151 of 301 rows, steps 150000 to 300000:
Temp Press Volume Density
371.691 -0.0558477 287519 1.13073
Loop time of 74.7812 on 1 procs for 300000 steps with 750 atoms

unfix 		1
fix		1 all nve
run 		200000
Step Temp Press Volume Density
300000    359.65266    12.241227     286799.7    1.1333986
Averages over the last 101 of 201 rows, steps 400000 to 500000:
Temp Press Volume Density
366.688 -16.7911 286800 1.1334
Loop time of 40.7259 on 1 procs for 200000 steps with 750 atoms

#dump pos all xyz 10 lj.xyz

dump		2 all custom 1 lj_trajectory_match_nve_large.out id mass x y z xu yu zu fx fy fz
dump_modify	2 sort id
dump_modify	2 format line "%d %.2f %.12f %.12f %.12f %.6f %.6f %.6f %.3f %.3f %.3f"

run		2000
Step Temp Press Volume Density
500000     355.7336    30.553209     286799.7    1.1333986
Loop time of 8.58888 on 1 procs for 2000 steps with 750 atoms

####################################
# 6) Advanced inputs
####################################

#dump		2 all custom 1000 positions.lammpstrj id x y z vx vy vz
#dump_modify	2 sort id

#compute		RDF all rdf 150 cutoff 3.5
#fix		RDF_OUTPUT all ave/time 25 100 5000 c_RDF[*] file rdf_lj.out mode vector

#compute		MSD all msd
#fix		MSD_OUTPUT all ave/correlate 1 5000 5000 c_MSD[*] file msd_lj.out ave running

#compute		VACF all vacf
#fix		VACF_OUTPUT all ave/correlate 1 2500 5000 c_VACF[*] file vacf_lj.out ave running

#run		5000

#write_restart	restart2.lj.equil
